FoamFile
{
    version     2.0;
    format      ascii;
    class       dictionary;
    object      decomposeParDict;
}

numberOfSubdomains $NUMBER_OF_PROCESSORS;
method             scotch;
